#
#
# ******************
# ECCO cost function
# ******************
#
 &ECCO_COST_NML
#
 cost_iprec  = 32,
 cost_yftype = 'RL',
#
 /
#
 &ECCO_GENCOST_NML
  gencost_avgperiod(1)  = 'month',
  gencost_barfile(1) = 'm_boxmean_theta',
  gencost_mask(1) = 'objmask'
  gencost_name(1) = 'boxmean',
  gencost_msk_is3d(1)=.TRUE.,
  gencost_outputlevel(1)=1,
  mult_gencost(1) = 1.,
#
 /
#
