# Packages
 &PACKAGES
 useEXF   = .TRUE.,
#useRBCS  = .TRUE.,
 useGMRedi= .TRUE.,
# useKPP   = .TRUE.,
 useSBO   = .TRUE.,
#useMNC   = .TRUE.,
 useSeaice= .TRUE.,
 useGGL90=.TRUE.,
 useSALT_PlUME=.FALSE.,
# useDOWN_SLOPE=.TRUE.,
#useDiagnostics=.TRUE.,
 useECCO=.TRUE.,
 useCTRL=.TRUE.,
 useProfiles=.FALSE.,
 useSMOOTH=.TRUE.,
#useGrdchk=.TRUE.,
#useLayers=.TRUE.,
#
#usePtracers=.TRUE.,
#useBBL=.TRUE.,
 /
