#
#
# *********************
# ECCO controlvariables
# *********************
 &CTRL_NML
 /
#
# *********************
# names for ctrl_pack/unpack
# *********************
 &CTRL_PACKNAMES
 yadmark  = 'ad',
 ctrlname = 'ecco_ctrl',
 costname = 'ecco_cost',
 scalname = 'ecco_scal',
 maskname = 'ecco_mask',
 metaname = 'ecco_meta',
 /
