#
# *******************
# Calendar Parameters
# *******************
 &CAL_NML
 TheCalendar='gregorian',
 calendarDumps=.TRUE.,
# TheCalendar='model',
 startDate_1=20200101,
 startDate_2=000000,
 /
